version 2
run General-0-20200904-10:12:09-18900
attr configname General
attr datetime 20200904-10:12:09
attr experiment General
attr inifile fat-tree.ini
attr iterationvars ""
attr iterationvarsf ""
attr measurement ""
attr network ib_model.examples.evaluation_fattree128.fat_tree_128
attr processid 18900
attr repetition 0
attr replication #0
attr resultdir results
attr runnumber 0
attr seedset 0
param **.servers[0].srcLid 1
param **.servers[1].srcLid 2
param **.servers[2].srcLid 3
param **.servers[3].srcLid 4
param **.servers[4].srcLid 5
param **.servers[5].srcLid 6
param **.servers[6].srcLid 7
param **.servers[7].srcLid 8
param **.servers[8].srcLid 9
param **.servers[9].srcLid 10
param **.servers[10].srcLid 11
param **.servers[11].srcLid 12
param **.servers[12].srcLid 13
param **.servers[13].srcLid 14
param **.servers[14].srcLid 15
param **.servers[15].srcLid 16
param **.servers[16].srcLid 17
param **.servers[17].srcLid 18
param **.servers[18].srcLid 19
param **.servers[19].srcLid 20
param **.servers[20].srcLid 21
param **.servers[21].srcLid 22
param **.servers[22].srcLid 23
param **.servers[23].srcLid 24
param **.servers[24].srcLid 25
param **.servers[25].srcLid 26
param **.servers[26].srcLid 27
param **.servers[27].srcLid 28
param **.servers[28].srcLid 29
param **.servers[29].srcLid 30
param **.servers[30].srcLid 31
param **.servers[31].srcLid 32
param **.servers[32].srcLid 33
param **.servers[33].srcLid 34
param **.servers[34].srcLid 35
param **.servers[35].srcLid 36
param **.servers[36].srcLid 37
param **.servers[37].srcLid 38
param **.servers[38].srcLid 39
param **.servers[39].srcLid 40
param **.servers[40].srcLid 41
param **.servers[41].srcLid 42
param **.servers[42].srcLid 43
param **.servers[43].srcLid 44
param **.servers[44].srcLid 45
param **.servers[45].srcLid 46
param **.servers[46].srcLid 47
param **.servers[47].srcLid 48
param **.servers[48].srcLid 49
param **.servers[49].srcLid 50
param **.servers[50].srcLid 51
param **.servers[51].srcLid 52
param **.servers[52].srcLid 53
param **.servers[53].srcLid 54
param **.servers[54].srcLid 55
param **.servers[55].srcLid 56
param **.servers[56].srcLid 57
param **.servers[57].srcLid 58
param **.servers[58].srcLid 59
param **.servers[59].srcLid 60
param **.servers[60].srcLid 61
param **.servers[61].srcLid 62
param **.servers[62].srcLid 63
param **.servers[63].srcLid 64
param **.servers[64].srcLid 65
param **.servers[65].srcLid 66
param **.servers[66].srcLid 67
param **.servers[67].srcLid 68
param **.servers[68].srcLid 69
param **.servers[69].srcLid 70
param **.servers[70].srcLid 71
param **.servers[71].srcLid 72
param **.servers[72].srcLid 73
param **.servers[73].srcLid 74
param **.servers[74].srcLid 75
param **.servers[75].srcLid 76
param **.servers[76].srcLid 77
param **.servers[77].srcLid 78
param **.servers[78].srcLid 79
param **.servers[79].srcLid 80
param **.servers[80].srcLid 81
param **.servers[81].srcLid 82
param **.servers[82].srcLid 83
param **.servers[83].srcLid 84
param **.servers[84].srcLid 85
param **.servers[85].srcLid 86
param **.servers[86].srcLid 87
param **.servers[87].srcLid 88
param **.servers[88].srcLid 89
param **.servers[89].srcLid 90
param **.servers[90].srcLid 91
param **.servers[91].srcLid 92
param **.servers[92].srcLid 93
param **.servers[93].srcLid 94
param **.servers[94].srcLid 95
param **.servers[95].srcLid 96
param **.servers[96].srcLid 97
param **.servers[97].srcLid 98
param **.servers[98].srcLid 99
param **.servers[99].srcLid 100
param **.servers[100].srcLid 101
param **.servers[101].srcLid 102
param **.servers[102].srcLid 103
param **.servers[103].srcLid 104
param **.servers[104].srcLid 105
param **.servers[105].srcLid 106
param **.servers[106].srcLid 107
param **.servers[107].srcLid 108
param **.servers[108].srcLid 109
param **.servers[109].srcLid 110
param **.servers[110].srcLid 111
param **.servers[111].srcLid 112
param **.servers[112].srcLid 113
param **.servers[113].srcLid 114
param **.servers[114].srcLid 115
param **.servers[115].srcLid 116
param **.servers[116].srcLid 117
param **.servers[117].srcLid 118
param **.servers[118].srcLid 119
param **.servers[119].srcLid 120
param **.servers[120].srcLid 121
param **.servers[121].srcLid 122
param **.servers[122].srcLid 123
param **.servers[123].srcLid 124
param **.servers[124].srcLid 125
param **.servers[125].srcLid 126
param **.servers[126].srcLid 127
param **.servers[127].srcLid 128
param **.flitSize 2048B
param **.width 4
param **.speed 10Gbps
param **.maxVL 1
param **.sink.hiccupDuration 0.001us
param **.sink.hiccupDelay 10000us
param **.sink.repFirstPackets 0
param **.obuf.credMinTime 4.096us
param **H_**.obuf.size 5
param **.ibuf.lossyMode false
param **.ISWDelay 50ns
param **.VSWDelay 50ns
param **SW**.vlarb.coreFreq 1200MHz
param **H_**.vlarb.coreFreq 1000MHz
param **SW**.vlarb.busWidth 24B
param **H_**.vlarb.busWidth 16B
param **.vlarb.vlHighLimit 16
param **.vlarb.highVLArbEntries "\"0:1 1:20 2:40 3:80\""
param **.vlarb.lowVLArbEntries "\"0:1 1:20 2:40 3:80\""
param **.vlarb.useFCFSRQArb false
param **.pktfwd.AdaptMode "\"none\""
param **.pktfwd.LIDBindTime 2us
param **.pktfwd.TQBusy1Thd 20
param **.pktfwd.TQBusy2Thd 40
param **.pktfwd.TQBusy3Thd 80
param **.pktfwd.ARAdaptThd 4
param **.pktfwd.OPSelAlgo "\"greedy\""
param **.pktfwd.GreedyRandSize 3
param **.pktfwd.statRepTime 10us
param **.pktfwd.OPSelOffsetByDLID 0
param **.L1_switches[0]**.fdbIndex 0
param **.L1_switches[1]**.fdbIndex 1
param **.L1_switches[2]**.fdbIndex 2
param **.L1_switches[3]**.fdbIndex 3
param **.L1_switches[4]**.fdbIndex 4
param **.L1_switches[5]**.fdbIndex 5
param **.L1_switches[6]**.fdbIndex 6
param **.L1_switches[7]**.fdbIndex 7
param **.L1_switches[8]**.fdbIndex 8
param **.L1_switches[9]**.fdbIndex 9
param **.L1_switches[10]**.fdbIndex 10
param **.L1_switches[11]**.fdbIndex 11
param **.L1_switches[12]**.fdbIndex 12
param **.L1_switches[13]**.fdbIndex 13
param **.L1_switches[14]**.fdbIndex 14
param **.L1_switches[15]**.fdbIndex 15
param **.L1_switches[16]**.fdbIndex 16
param **.L1_switches[17]**.fdbIndex 17
param **.L1_switches[18]**.fdbIndex 18
param **.L1_switches[19]**.fdbIndex 19
param **.L1_switches[20]**.fdbIndex 20
param **.L1_switches[21]**.fdbIndex 21
param **.L1_switches[22]**.fdbIndex 22
param **.L1_switches[23]**.fdbIndex 23
param **.L1_switches[24]**.fdbIndex 24
param **.L1_switches[25]**.fdbIndex 25
param **.L1_switches[26]**.fdbIndex 26
param **.L1_switches[27]**.fdbIndex 27
param **.L1_switches[28]**.fdbIndex 28
param **.L1_switches[29]**.fdbIndex 29
param **.L1_switches[30]**.fdbIndex 30
param **.L1_switches[31]**.fdbIndex 31
param **.L2_switches[0]**.fdbIndex 32
param **.L2_switches[1]**.fdbIndex 33
param **.L2_switches[2]**.fdbIndex 34
param **.L2_switches[3]**.fdbIndex 35
param **.L2_switches[4]**.fdbIndex 36
param **.L2_switches[5]**.fdbIndex 37
param **.L2_switches[6]**.fdbIndex 38
param **.L2_switches[7]**.fdbIndex 39
param **.L2_switches[8]**.fdbIndex 40
param **.L2_switches[9]**.fdbIndex 41
param **.L2_switches[10]**.fdbIndex 42
param **.L2_switches[11]**.fdbIndex 43
param **.L2_switches[12]**.fdbIndex 44
param **.L2_switches[13]**.fdbIndex 45
param **.L2_switches[14]**.fdbIndex 46
param **.L2_switches[15]**.fdbIndex 47
param **.L2_switches[16]**.fdbIndex 48
param **.L2_switches[17]**.fdbIndex 49
param **.L2_switches[18]**.fdbIndex 50
param **.L2_switches[19]**.fdbIndex 51
param **.L2_switches[20]**.fdbIndex 52
param **.L2_switches[21]**.fdbIndex 53
param **.L2_switches[22]**.fdbIndex 54
param **.L2_switches[23]**.fdbIndex 55
param **.L2_switches[24]**.fdbIndex 56
param **.L2_switches[25]**.fdbIndex 57
param **.L2_switches[26]**.fdbIndex 58
param **.L2_switches[27]**.fdbIndex 59
param **.L2_switches[28]**.fdbIndex 60
param **.L2_switches[29]**.fdbIndex 61
param **.L2_switches[30]**.fdbIndex 62
param **.L2_switches[31]**.fdbIndex 63
param **.L3_switches[0]**.fdbIndex 64
param **.L3_switches[1]**.fdbIndex 65
param **.L3_switches[2]**.fdbIndex 66
param **.L3_switches[3]**.fdbIndex 67
param **.L3_switches[4]**.fdbIndex 68
param **.L3_switches[5]**.fdbIndex 69
param **.L3_switches[6]**.fdbIndex 70
param **.L3_switches[7]**.fdbIndex 71
param **.L3_switches[8]**.fdbIndex 72
param **.L3_switches[9]**.fdbIndex 73
param **.L3_switches[10]**.fdbIndex 74
param **.L3_switches[11]**.fdbIndex 75
param **.L3_switches[12]**.fdbIndex 76
param **.L3_switches[13]**.fdbIndex 77
param **.L3_switches[14]**.fdbIndex 78
param **.L3_switches[15]**.fdbIndex 79
param **.servers[119]**.dstLid 105
param **.servers[119].app.msgLength 4194304B
param **.servers[119].app.msg2msgGap 1ns
param **.servers[119].app.msgNum 5
param **.servers[119].**.on_average_throughput 1
param **.servers[119]**.startTime 0.005000
param **.servers[119]**.endTime 0.025000
param **.servers[104]**.on_utilization 1
param **.servers[17]**.dstLid 105
param **.servers[17].app.msgLength 4194304B
param **.servers[17].app.msg2msgGap 1ns
param **.servers[17].app.msgNum 5
param **.servers[17].**.on_average_throughput 1
param **.servers[17]**.startTime 0.005000
param **.servers[17]**.endTime 0.025000
param **.servers[104]**.on_utilization 1
param **.servers[109]**.dstLid 61
param **.servers[109].app.msgLength 4194304B
param **.servers[109].app.msg2msgGap 1ns
param **.servers[109].app.msgNum 5
param **.servers[109].**.on_average_throughput 1
param **.servers[109]**.startTime 0.005000
param **.servers[109]**.endTime 0.025000
param **.servers[60]**.on_utilization 1
param **.servers[2]**.dstLid 10
param **.servers[2].app.msgLength 4194304B
param **.servers[2].app.msg2msgGap 1ns
param **.servers[2].app.msgNum 5
param **.servers[2].**.on_average_throughput 1
param **.servers[2]**.startTime 0.005000
param **.servers[2]**.endTime 0.025000
param **.servers[9]**.on_utilization 1
param **.servers[64]**.dstLid 70
param **.servers[64].app.msgLength 4194304B
param **.servers[64].app.msg2msgGap 1ns
param **.servers[64].app.msgNum 5
param **.servers[64].**.on_average_throughput 1
param **.servers[64]**.startTime 0.005000
param **.servers[64]**.endTime 0.025000
param **.servers[69]**.on_utilization 1
param **.servers[62]**.dstLid 105
param **.servers[62].app.msgLength 4194304B
param **.servers[62].app.msg2msgGap 1ns
param **.servers[62].app.msgNum 5
param **.servers[62].**.on_average_throughput 1
param **.servers[62]**.startTime 0.005000
param **.servers[62]**.endTime 0.025000
param **.servers[104]**.on_utilization 1
param **.servers[125]**.dstLid 17
param **.servers[125].app.msgLength 4194304B
param **.servers[125].app.msg2msgGap 1ns
param **.servers[125].app.msgNum 5
param **.servers[125].**.on_average_throughput 1
param **.servers[125]**.startTime 0.005000
param **.servers[125]**.endTime 0.025000
param **.servers[16]**.on_utilization 1
param **.servers[48]**.dstLid 61
param **.servers[48].app.msgLength 4194304B
param **.servers[48].app.msg2msgGap 1ns
param **.servers[48].app.msgNum 5
param **.servers[48].**.on_average_throughput 1
param **.servers[48]**.startTime 0.005000
param **.servers[48]**.endTime 0.025000
param **.servers[60]**.on_utilization 1
param **.servers[99]**.dstLid 70
param **.servers[99].app.msgLength 4194304B
param **.servers[99].app.msg2msgGap 1ns
param **.servers[99].app.msgNum 5
param **.servers[99].**.on_average_throughput 1
param **.servers[99]**.startTime 0.005000
param **.servers[99]**.endTime 0.025000
param **.servers[69]**.on_utilization 1
param **.servers[127]**.dstLid 10
param **.servers[127].app.msgLength 4194304B
param **.servers[127].app.msg2msgGap 1ns
param **.servers[127].app.msgNum 5
param **.servers[127].**.on_average_throughput 1
param **.servers[127]**.startTime 0.005000
param **.servers[127]**.endTime 0.025000
param **.servers[9]**.on_utilization 1
param **.servers[71]**.dstLid 92
param **.servers[71].app.msgLength 4194304B
param **.servers[71].app.msg2msgGap 1ns
param **.servers[71].app.msgNum 5
param **.servers[71].**.on_average_throughput 1
param **.servers[71]**.startTime 0.005000
param **.servers[71]**.endTime 0.025000
param **.servers[91]**.on_utilization 1
param **.servers[43]**.dstLid 35
param **.servers[43].app.msgLength 4194304B
param **.servers[43].app.msg2msgGap 1ns
param **.servers[43].app.msgNum 5
param **.servers[43].**.on_average_throughput 1
param **.servers[43]**.startTime 0.005000
param **.servers[43]**.endTime 0.025000
param **.servers[34]**.on_utilization 1
param **.servers[88]**.dstLid 35
param **.servers[88].app.msgLength 4194304B
param **.servers[88].app.msg2msgGap 1ns
param **.servers[88].app.msgNum 5
param **.servers[88].**.on_average_throughput 1
param **.servers[88]**.startTime 0.005000
param **.servers[88]**.endTime 0.025000
param **.servers[34]**.on_utilization 1
param **.servers[52]**.dstLid 17
param **.servers[52].app.msgLength 4194304B
param **.servers[52].app.msg2msgGap 1ns
param **.servers[52].app.msgNum 5
param **.servers[52].**.on_average_throughput 1
param **.servers[52]**.startTime 0.005000
param **.servers[52]**.endTime 0.025000
param **.servers[16]**.on_utilization 1
param **.servers[98]**.dstLid 35
param **.servers[98].app.msgLength 4194304B
param **.servers[98].app.msg2msgGap 1ns
param **.servers[98].app.msgNum 5
param **.servers[98].**.on_average_throughput 1
param **.servers[98]**.startTime 0.005000
param **.servers[98]**.endTime 0.025000
param **.servers[34]**.on_utilization 1
param **.servers[70]**.dstLid 105
param **.servers[70].app.msgLength 4194304B
param **.servers[70].app.msg2msgGap 1ns
param **.servers[70].app.msgNum 5
param **.servers[70].**.on_average_throughput 1
param **.servers[70]**.startTime 0.005000
param **.servers[70]**.endTime 0.025000
param **.servers[104]**.on_utilization 1
param **.servers[19]**.dstLid 125
param **.servers[19].app.msgLength 4194304B
param **.servers[19].app.msg2msgGap 1ns
param **.servers[19].app.msgNum 5
param **.servers[19].**.on_average_throughput 1
param **.servers[19]**.startTime 0.005000
param **.servers[19]**.endTime 0.025000
param **.servers[124]**.on_utilization 1
param **.servers[126]**.dstLid 70
param **.servers[126].app.msgLength 4194304B
param **.servers[126].app.msg2msgGap 1ns
param **.servers[126].app.msgNum 5
param **.servers[126].**.on_average_throughput 1
param **.servers[126]**.startTime 0.005000
param **.servers[126]**.endTime 0.025000
param **.servers[69]**.on_utilization 1
param **.servers[115]**.dstLid 17
param **.servers[115].app.msgLength 4194304B
param **.servers[115].app.msg2msgGap 1ns
param **.servers[115].app.msgNum 5
param **.servers[115].**.on_average_throughput 1
param **.servers[115]**.startTime 0.005000
param **.servers[115]**.endTime 0.025000
param **.servers[16]**.on_utilization 1
param **.servers[4]**.dstLid 10
param **.servers[4].app.msgLength 4194304B
param **.servers[4].app.msg2msgGap 1ns
param **.servers[4].app.msgNum 5
param **.servers[4].**.on_average_throughput 1
param **.servers[4]**.startTime 0.005000
param **.servers[4]**.endTime 0.025000
param **.servers[9]**.on_utilization 1
param **.servers[25]**.dstLid 61
param **.servers[25].app.msgLength 4194304B
param **.servers[25].app.msg2msgGap 1ns
param **.servers[25].app.msgNum 5
param **.servers[25].**.on_average_throughput 1
param **.servers[25]**.startTime 0.005000
param **.servers[25]**.endTime 0.025000
param **.servers[60]**.on_utilization 1
param **.servers[59]**.dstLid 17
param **.servers[59].app.msgLength 4194304B
param **.servers[59].app.msg2msgGap 1ns
param **.servers[59].app.msgNum 5
param **.servers[59].**.on_average_throughput 1
param **.servers[59]**.startTime 0.005000
param **.servers[59]**.endTime 0.025000
param **.servers[16]**.on_utilization 1
param **.servers[73]**.dstLid 61
param **.servers[73].app.msgLength 4194304B
param **.servers[73].app.msg2msgGap 1ns
param **.servers[73].app.msgNum 5
param **.servers[73].**.on_average_throughput 1
param **.servers[73]**.startTime 0.005000
param **.servers[73]**.endTime 0.025000
param **.servers[60]**.on_utilization 1
param **.servers[83]**.dstLid 17
param **.servers[83].app.msgLength 4194304B
param **.servers[83].app.msg2msgGap 1ns
param **.servers[83].app.msgNum 5
param **.servers[83].**.on_average_throughput 1
param **.servers[83]**.startTime 0.005000
param **.servers[83]**.endTime 0.025000
param **.servers[16]**.on_utilization 1
param **.servers[0]**.dstLid 4
param **.servers[0].app.msgLength 4096B
param **.servers[0].app.msg2msgGap 2000ns
param **.servers[0].app.msgNum 200
param **.servers[0]**.startTime 0.011000
param **.servers[0]**.endTime 0.012000
param **.servers[1]**.dstLid 54
param **.servers[1].app.msgLength 4096B
param **.servers[1].app.msg2msgGap 7000ns
param **.servers[1].app.msgNum 200
param **.servers[1]**.startTime 0.011000
param **.servers[1]**.endTime 0.012000
param **.servers[3]**.dstLid 82
param **.servers[3].app.msgLength 4096B
param **.servers[3].app.msg2msgGap 3000ns
param **.servers[3].app.msgNum 200
param **.servers[3]**.startTime 0.015000
param **.servers[3]**.endTime 0.016000
param **.servers[5]**.dstLid 30
param **.servers[5].app.msgLength 4096B
param **.servers[5].app.msg2msgGap 1000ns
param **.servers[5].app.msgNum 200
param **.servers[5]**.startTime 0.009000
param **.servers[5]**.endTime 0.010000
param **.servers[6]**.dstLid 95
param **.servers[6].app.msgLength 4096B
param **.servers[6].app.msg2msgGap 9000ns
param **.servers[6].app.msgNum 200
param **.servers[6]**.startTime 0.021000
param **.servers[6]**.endTime 0.022000
param **.servers[7]**.dstLid 25
param **.servers[7].app.msgLength 4096B
param **.servers[7].app.msg2msgGap 9000ns
param **.servers[7].app.msgNum 200
param **.servers[7]**.startTime 0.019000
param **.servers[7]**.endTime 0.020000
param **.servers[8]**.dstLid 106
param **.servers[8].app.msgLength 4096B
param **.servers[8].app.msg2msgGap 4000ns
param **.servers[8].app.msgNum 200
param **.servers[8]**.startTime 0.013000
param **.servers[8]**.endTime 0.014000
param **.servers[10]**.dstLid 54
param **.servers[10].app.msgLength 4096B
param **.servers[10].app.msg2msgGap 5000ns
param **.servers[10].app.msgNum 200
param **.servers[10]**.startTime 0.019000
param **.servers[10]**.endTime 0.020000
param **.servers[11]**.dstLid 67
param **.servers[11].app.msgLength 4096B
param **.servers[11].app.msg2msgGap 1000ns
param **.servers[11].app.msgNum 200
param **.servers[11]**.startTime 0.013000
param **.servers[11]**.endTime 0.014000
param **.servers[12]**.dstLid 52
param **.servers[12].app.msgLength 4096B
param **.servers[12].app.msg2msgGap 10000ns
param **.servers[12].app.msgNum 200
param **.servers[12]**.startTime 0.009000
param **.servers[12]**.endTime 0.010000
param **.servers[13]**.dstLid 69
param **.servers[13].app.msgLength 4096B
param **.servers[13].app.msg2msgGap 2000ns
param **.servers[13].app.msgNum 200
param **.servers[13]**.startTime 0.007000
param **.servers[13]**.endTime 0.008000
param **.servers[14]**.dstLid 59
param **.servers[14].app.msgLength 4096B
param **.servers[14].app.msg2msgGap 2000ns
param **.servers[14].app.msgNum 200
param **.servers[14]**.startTime 0.019000
param **.servers[14]**.endTime 0.020000
param **.servers[15]**.dstLid 111
param **.servers[15].app.msgLength 4096B
param **.servers[15].app.msg2msgGap 10000ns
param **.servers[15].app.msgNum 200
param **.servers[15]**.startTime 0.019000
param **.servers[15]**.endTime 0.020000
param **.servers[18]**.dstLid 118
param **.servers[18].app.msgLength 4096B
param **.servers[18].app.msg2msgGap 7000ns
param **.servers[18].app.msgNum 200
param **.servers[18]**.startTime 0.009000
param **.servers[18]**.endTime 0.010000
param **.servers[20]**.dstLid 75
param **.servers[20].app.msgLength 4096B
param **.servers[20].app.msg2msgGap 2000ns
param **.servers[20].app.msgNum 200
param **.servers[20]**.startTime 0.013000
param **.servers[20]**.endTime 0.014000
param **.servers[21]**.dstLid 51
param **.servers[21].app.msgLength 4096B
param **.servers[21].app.msg2msgGap 2000ns
param **.servers[21].app.msgNum 200
param **.servers[21]**.startTime 0.017000
param **.servers[21]**.endTime 0.018000
param **.servers[22]**.dstLid 69
param **.servers[22].app.msgLength 4096B
param **.servers[22].app.msg2msgGap 10000ns
param **.servers[22].app.msgNum 200
param **.servers[22]**.startTime 0.019000
param **.servers[22]**.endTime 0.020000
param **.servers[23]**.dstLid 119
param **.servers[23].app.msgLength 4096B
param **.servers[23].app.msg2msgGap 7000ns
param **.servers[23].app.msgNum 200
param **.servers[23]**.startTime 0.015000
param **.servers[23]**.endTime 0.016000
param **.servers[24]**.dstLid 101
param **.servers[24].app.msgLength 4096B
param **.servers[24].app.msg2msgGap 1000ns
param **.servers[24].app.msgNum 200
param **.servers[24]**.startTime 0.017000
param **.servers[24]**.endTime 0.018000
param **.servers[26]**.dstLid 39
param **.servers[26].app.msgLength 4096B
param **.servers[26].app.msg2msgGap 9000ns
param **.servers[26].app.msgNum 200
param **.servers[26]**.startTime 0.017000
param **.servers[26]**.endTime 0.018000
param **.servers[27]**.dstLid 59
param **.servers[27].app.msgLength 4096B
param **.servers[27].app.msg2msgGap 8000ns
param **.servers[27].app.msgNum 200
param **.servers[27]**.startTime 0.009000
param **.servers[27]**.endTime 0.010000
param **.servers[28]**.dstLid 115
param **.servers[28].app.msgLength 4096B
param **.servers[28].app.msg2msgGap 10000ns
param **.servers[28].app.msgNum 200
param **.servers[28]**.startTime 0.015000
param **.servers[28]**.endTime 0.016000
param **.servers[29]**.dstLid 39
param **.servers[29].app.msgLength 4096B
param **.servers[29].app.msg2msgGap 1000ns
param **.servers[29].app.msgNum 200
param **.servers[29]**.startTime 0.007000
param **.servers[29]**.endTime 0.008000
param **.servers[30]**.dstLid 123
param **.servers[30].app.msgLength 4096B
param **.servers[30].app.msg2msgGap 10000ns
param **.servers[30].app.msgNum 200
param **.servers[30]**.startTime 0.021000
param **.servers[30]**.endTime 0.022000
param **.servers[31]**.dstLid 27
param **.servers[31].app.msgLength 4096B
param **.servers[31].app.msg2msgGap 8000ns
param **.servers[31].app.msgNum 200
param **.servers[31]**.startTime 0.019000
param **.servers[31]**.endTime 0.020000
param **.servers[32]**.dstLid 50
param **.servers[32].app.msgLength 4096B
param **.servers[32].app.msg2msgGap 3000ns
param **.servers[32].app.msgNum 200
param **.servers[32]**.startTime 0.007000
param **.servers[32]**.endTime 0.008000
param **.servers[33]**.dstLid 11
param **.servers[33].app.msgLength 4096B
param **.servers[33].app.msg2msgGap 10000ns
param **.servers[33].app.msgNum 200
param **.servers[33]**.startTime 0.015000
param **.servers[33]**.endTime 0.016000
param **.servers[35]**.dstLid 90
param **.servers[35].app.msgLength 4096B
param **.servers[35].app.msg2msgGap 9000ns
param **.servers[35].app.msgNum 200
param **.servers[35]**.startTime 0.015000
param **.servers[35]**.endTime 0.016000
param **.servers[36]**.dstLid 107
param **.servers[36].app.msgLength 4096B
param **.servers[36].app.msg2msgGap 2000ns
param **.servers[36].app.msgNum 200
param **.servers[36]**.startTime 0.019000
param **.servers[36]**.endTime 0.020000
param **.servers[37]**.dstLid 51
param **.servers[37].app.msgLength 4096B
param **.servers[37].app.msg2msgGap 9000ns
param **.servers[37].app.msgNum 200
param **.servers[37]**.startTime 0.009000
param **.servers[37]**.endTime 0.010000
param **.servers[38]**.dstLid 113
param **.servers[38].app.msgLength 4096B
param **.servers[38].app.msg2msgGap 7000ns
param **.servers[38].app.msgNum 200
param **.servers[38]**.startTime 0.007000
param **.servers[38]**.endTime 0.008000
param **.servers[39]**.dstLid 6
param **.servers[39].app.msgLength 4096B
param **.servers[39].app.msg2msgGap 1000ns
param **.servers[39].app.msgNum 200
param **.servers[39]**.startTime 0.009000
param **.servers[39]**.endTime 0.010000
param **.servers[40]**.dstLid 27
param **.servers[40].app.msgLength 4096B
param **.servers[40].app.msg2msgGap 10000ns
param **.servers[40].app.msgNum 200
param **.servers[40]**.startTime 0.011000
param **.servers[40]**.endTime 0.012000
param **.servers[41]**.dstLid 94
param **.servers[41].app.msgLength 4096B
param **.servers[41].app.msg2msgGap 6000ns
param **.servers[41].app.msgNum 200
param **.servers[41]**.startTime 0.017000
param **.servers[41]**.endTime 0.018000
param **.servers[42]**.dstLid 108
param **.servers[42].app.msgLength 4096B
param **.servers[42].app.msg2msgGap 9000ns
param **.servers[42].app.msgNum 200
param **.servers[42]**.startTime 0.013000
param **.servers[42]**.endTime 0.014000
param **.servers[44]**.dstLid 13
param **.servers[44].app.msgLength 4096B
param **.servers[44].app.msg2msgGap 4000ns
param **.servers[44].app.msgNum 200
param **.servers[44]**.startTime 0.015000
param **.servers[44]**.endTime 0.016000
param **.servers[45]**.dstLid 107
param **.servers[45].app.msgLength 4096B
param **.servers[45].app.msg2msgGap 3000ns
param **.servers[45].app.msgNum 200
param **.servers[45]**.startTime 0.011000
param **.servers[45]**.endTime 0.012000
param **.servers[46]**.dstLid 19
param **.servers[46].app.msgLength 4096B
param **.servers[46].app.msg2msgGap 5000ns
param **.servers[46].app.msgNum 200
param **.servers[46]**.startTime 0.015000
param **.servers[46]**.endTime 0.016000
param **.servers[47]**.dstLid 25
param **.servers[47].app.msgLength 4096B
param **.servers[47].app.msg2msgGap 2000ns
param **.servers[47].app.msgNum 200
param **.servers[47]**.startTime 0.021000
param **.servers[47]**.endTime 0.022000
param **.servers[49]**.dstLid 67
param **.servers[49].app.msgLength 4096B
param **.servers[49].app.msg2msgGap 2000ns
param **.servers[49].app.msgNum 200
param **.servers[49]**.startTime 0.011000
param **.servers[49]**.endTime 0.012000
param **.servers[50]**.dstLid 121
param **.servers[50].app.msgLength 4096B
param **.servers[50].app.msg2msgGap 3000ns
param **.servers[50].app.msgNum 200
param **.servers[50]**.startTime 0.019000
param **.servers[50]**.endTime 0.020000
param **.servers[51]**.dstLid 32
param **.servers[51].app.msgLength 4096B
param **.servers[51].app.msg2msgGap 7000ns
param **.servers[51].app.msgNum 200
param **.servers[51]**.startTime 0.019000
param **.servers[51]**.endTime 0.020000
param **.servers[53]**.dstLid 13
param **.servers[53].app.msgLength 4096B
param **.servers[53].app.msg2msgGap 3000ns
param **.servers[53].app.msgNum 200
param **.servers[53]**.startTime 0.007000
param **.servers[53]**.endTime 0.008000
param **.servers[54]**.dstLid 62
param **.servers[54].app.msgLength 4096B
param **.servers[54].app.msg2msgGap 10000ns
param **.servers[54].app.msgNum 200
param **.servers[54]**.startTime 0.019000
param **.servers[54]**.endTime 0.020000
param **.servers[55]**.dstLid 37
param **.servers[55].app.msgLength 4096B
param **.servers[55].app.msg2msgGap 4000ns
param **.servers[55].app.msgNum 200
param **.servers[55]**.startTime 0.021000
param **.servers[55]**.endTime 0.022000
param **.servers[56]**.dstLid 11
param **.servers[56].app.msgLength 4096B
param **.servers[56].app.msg2msgGap 4000ns
param **.servers[56].app.msgNum 200
param **.servers[56]**.startTime 0.007000
param **.servers[56]**.endTime 0.008000
param **.servers[57]**.dstLid 48
param **.servers[57].app.msgLength 4096B
param **.servers[57].app.msg2msgGap 6000ns
param **.servers[57].app.msgNum 200
param **.servers[57]**.startTime 0.015000
param **.servers[57]**.endTime 0.016000
param **.servers[58]**.dstLid 122
param **.servers[58].app.msgLength 4096B
param **.servers[58].app.msg2msgGap 9000ns
param **.servers[58].app.msgNum 200
param **.servers[58]**.startTime 0.021000
param **.servers[58]**.endTime 0.022000
param **.servers[61]**.dstLid 108
param **.servers[61].app.msgLength 4096B
param **.servers[61].app.msg2msgGap 1000ns
param **.servers[61].app.msgNum 200
param **.servers[61]**.startTime 0.013000
param **.servers[61]**.endTime 0.014000
param **.servers[63]**.dstLid 121
param **.servers[63].app.msgLength 4096B
param **.servers[63].app.msg2msgGap 1000ns
param **.servers[63].app.msgNum 200
param **.servers[63]**.startTime 0.021000
param **.servers[63]**.endTime 0.022000
param **.servers[65]**.dstLid 55
param **.servers[65].app.msgLength 4096B
param **.servers[65].app.msg2msgGap 5000ns
param **.servers[65].app.msgNum 200
param **.servers[65]**.startTime 0.015000
param **.servers[65]**.endTime 0.016000
param **.servers[66]**.dstLid 62
param **.servers[66].app.msgLength 4096B
param **.servers[66].app.msg2msgGap 5000ns
param **.servers[66].app.msgNum 200
param **.servers[66]**.startTime 0.011000
param **.servers[66]**.endTime 0.012000
param **.servers[67]**.dstLid 28
param **.servers[67].app.msgLength 4096B
param **.servers[67].app.msg2msgGap 8000ns
param **.servers[67].app.msgNum 200
param **.servers[67]**.startTime 0.015000
param **.servers[67]**.endTime 0.016000
param **.servers[68]**.dstLid 36
param **.servers[68].app.msgLength 4096B
param **.servers[68].app.msg2msgGap 7000ns
param **.servers[68].app.msgNum 200
param **.servers[68]**.startTime 0.017000
param **.servers[68]**.endTime 0.018000
param **.servers[72]**.dstLid 24
param **.servers[72].app.msgLength 4096B
param **.servers[72].app.msg2msgGap 7000ns
param **.servers[72].app.msgNum 200
param **.servers[72]**.startTime 0.011000
param **.servers[72]**.endTime 0.012000
param **.servers[74]**.dstLid 91
param **.servers[74].app.msgLength 4096B
param **.servers[74].app.msg2msgGap 7000ns
param **.servers[74].app.msgNum 200
param **.servers[74]**.startTime 0.007000
param **.servers[74]**.endTime 0.008000
param **.servers[75]**.dstLid 31
param **.servers[75].app.msgLength 4096B
param **.servers[75].app.msg2msgGap 1000ns
param **.servers[75].app.msgNum 200
param **.servers[75]**.startTime 0.011000
param **.servers[75]**.endTime 0.012000
param **.servers[76]**.dstLid 36
param **.servers[76].app.msgLength 4096B
param **.servers[76].app.msg2msgGap 6000ns
param **.servers[76].app.msgNum 200
param **.servers[76]**.startTime 0.009000
param **.servers[76]**.endTime 0.010000
param **.servers[77]**.dstLid 22
param **.servers[77].app.msgLength 4096B
param **.servers[77].app.msg2msgGap 6000ns
param **.servers[77].app.msgNum 200
param **.servers[77]**.startTime 0.021000
param **.servers[77]**.endTime 0.022000
param **.servers[78]**.dstLid 111
param **.servers[78].app.msgLength 4096B
param **.servers[78].app.msg2msgGap 6000ns
param **.servers[78].app.msgNum 200
param **.servers[78]**.startTime 0.017000
param **.servers[78]**.endTime 0.018000
param **.servers[79]**.dstLid 57
param **.servers[79].app.msgLength 4096B
param **.servers[79].app.msg2msgGap 4000ns
param **.servers[79].app.msgNum 200
param **.servers[79]**.startTime 0.011000
param **.servers[79]**.endTime 0.012000
param **.servers[80]**.dstLid 78
param **.servers[80].app.msgLength 4096B
param **.servers[80].app.msg2msgGap 10000ns
param **.servers[80].app.msgNum 200
param **.servers[80]**.startTime 0.007000
param **.servers[80]**.endTime 0.008000
param **.servers[81]**.dstLid 93
param **.servers[81].app.msgLength 4096B
param **.servers[81].app.msg2msgGap 8000ns
param **.servers[81].app.msgNum 200
param **.servers[81]**.startTime 0.009000
param **.servers[81]**.endTime 0.010000
param **.servers[82]**.dstLid 30
param **.servers[82].app.msgLength 4096B
param **.servers[82].app.msg2msgGap 3000ns
param **.servers[82].app.msgNum 200
param **.servers[82]**.startTime 0.019000
param **.servers[82]**.endTime 0.020000
param **.servers[84]**.dstLid 64
param **.servers[84].app.msgLength 4096B
param **.servers[84].app.msg2msgGap 4000ns
param **.servers[84].app.msgNum 200
param **.servers[84]**.startTime 0.013000
param **.servers[84]**.endTime 0.014000
param **.servers[85]**.dstLid 25
param **.servers[85].app.msgLength 4096B
param **.servers[85].app.msg2msgGap 3000ns
param **.servers[85].app.msgNum 200
param **.servers[85]**.startTime 0.011000
param **.servers[85]**.endTime 0.012000
param **.servers[86]**.dstLid 93
param **.servers[86].app.msgLength 4096B
param **.servers[86].app.msg2msgGap 7000ns
param **.servers[86].app.msgNum 200
param **.servers[86]**.startTime 0.009000
param **.servers[86]**.endTime 0.010000
param **.servers[87]**.dstLid 28
param **.servers[87].app.msgLength 4096B
param **.servers[87].app.msg2msgGap 2000ns
param **.servers[87].app.msgNum 200
param **.servers[87]**.startTime 0.019000
param **.servers[87]**.endTime 0.020000
param **.servers[89]**.dstLid 32
param **.servers[89].app.msgLength 4096B
param **.servers[89].app.msg2msgGap 2000ns
param **.servers[89].app.msgNum 200
param **.servers[89]**.startTime 0.009000
param **.servers[89]**.endTime 0.010000
param **.servers[90]**.dstLid 102
param **.servers[90].app.msgLength 4096B
param **.servers[90].app.msg2msgGap 5000ns
param **.servers[90].app.msgNum 200
param **.servers[90]**.startTime 0.015000
param **.servers[90]**.endTime 0.016000
param **.servers[92]**.dstLid 83
param **.servers[92].app.msgLength 4096B
param **.servers[92].app.msg2msgGap 5000ns
param **.servers[92].app.msgNum 200
param **.servers[92]**.startTime 0.021000
param **.servers[92]**.endTime 0.022000
param **.servers[93]**.dstLid 42
param **.servers[93].app.msgLength 4096B
param **.servers[93].app.msg2msgGap 4000ns
param **.servers[93].app.msgNum 200
param **.servers[93]**.startTime 0.017000
param **.servers[93]**.endTime 0.018000
param **.servers[94]**.dstLid 109
param **.servers[94].app.msgLength 4096B
param **.servers[94].app.msg2msgGap 10000ns
param **.servers[94].app.msgNum 200
param **.servers[94]**.startTime 0.021000
param **.servers[94]**.endTime 0.022000
param **.servers[95]**.dstLid 67
param **.servers[95].app.msgLength 4096B
param **.servers[95].app.msg2msgGap 4000ns
param **.servers[95].app.msgNum 200
param **.servers[95]**.startTime 0.007000
param **.servers[95]**.endTime 0.008000
param **.servers[96]**.dstLid 107
param **.servers[96].app.msgLength 4096B
param **.servers[96].app.msg2msgGap 10000ns
param **.servers[96].app.msgNum 200
param **.servers[96]**.startTime 0.007000
param **.servers[96]**.endTime 0.008000
param **.servers[97]**.dstLid 11
param **.servers[97].app.msgLength 4096B
param **.servers[97].app.msg2msgGap 1000ns
param **.servers[97].app.msgNum 200
param **.servers[97]**.startTime 0.017000
param **.servers[97]**.endTime 0.018000
param **.servers[100]**.dstLid 36
param **.servers[100].app.msgLength 4096B
param **.servers[100].app.msg2msgGap 2000ns
param **.servers[100].app.msgNum 200
param **.servers[100]**.startTime 0.019000
param **.servers[100]**.endTime 0.020000
param **.servers[101]**.dstLid 122
param **.servers[101].app.msgLength 4096B
param **.servers[101].app.msg2msgGap 10000ns
param **.servers[101].app.msgNum 200
param **.servers[101]**.startTime 0.019000
param **.servers[101]**.endTime 0.020000
param **.servers[102]**.dstLid 27
param **.servers[102].app.msgLength 4096B
param **.servers[102].app.msg2msgGap 2000ns
param **.servers[102].app.msgNum 200
param **.servers[102]**.startTime 0.013000
param **.servers[102]**.endTime 0.014000
param **.servers[103]**.dstLid 11
param **.servers[103].app.msgLength 4096B
param **.servers[103].app.msg2msgGap 5000ns
param **.servers[103].app.msgNum 200
param **.servers[103]**.startTime 0.015000
param **.servers[103]**.endTime 0.016000
param **.servers[105]**.dstLid 57
param **.servers[105].app.msgLength 4096B
param **.servers[105].app.msg2msgGap 9000ns
param **.servers[105].app.msgNum 200
param **.servers[105]**.startTime 0.009000
param **.servers[105]**.endTime 0.010000
param **.servers[106]**.dstLid 118
param **.servers[106].app.msgLength 4096B
param **.servers[106].app.msg2msgGap 3000ns
param **.servers[106].app.msgNum 200
param **.servers[106]**.startTime 0.009000
param **.servers[106]**.endTime 0.010000
param **.servers[107]**.dstLid 115
param **.servers[107].app.msgLength 4096B
param **.servers[107].app.msg2msgGap 5000ns
param **.servers[107].app.msgNum 200
param **.servers[107]**.startTime 0.011000
param **.servers[107]**.endTime 0.012000
param **.servers[108]**.dstLid 57
param **.servers[108].app.msgLength 4096B
param **.servers[108].app.msg2msgGap 7000ns
param **.servers[108].app.msgNum 200
param **.servers[108]**.startTime 0.007000
param **.servers[108]**.endTime 0.008000
param **.servers[110]**.dstLid 8
param **.servers[110].app.msgLength 4096B
param **.servers[110].app.msg2msgGap 3000ns
param **.servers[110].app.msgNum 200
param **.servers[110]**.startTime 0.019000
param **.servers[110]**.endTime 0.020000
param **.servers[111]**.dstLid 42
param **.servers[111].app.msgLength 4096B
param **.servers[111].app.msg2msgGap 4000ns
param **.servers[111].app.msgNum 200
param **.servers[111]**.startTime 0.019000
param **.servers[111]**.endTime 0.020000
param **.servers[112]**.dstLid 40
param **.servers[112].app.msgLength 4096B
param **.servers[112].app.msg2msgGap 4000ns
param **.servers[112].app.msgNum 200
param **.servers[112]**.startTime 0.009000
param **.servers[112]**.endTime 0.010000
param **.servers[113]**.dstLid 14
param **.servers[113].app.msgLength 4096B
param **.servers[113].app.msg2msgGap 1000ns
param **.servers[113].app.msgNum 200
param **.servers[113]**.startTime 0.021000
param **.servers[113]**.endTime 0.022000
param **.servers[114]**.dstLid 1
param **.servers[114].app.msgLength 4096B
param **.servers[114].app.msg2msgGap 2000ns
param **.servers[114].app.msgNum 200
param **.servers[114]**.startTime 0.011000
param **.servers[114]**.endTime 0.012000
param **.servers[116]**.dstLid 96
param **.servers[116].app.msgLength 4096B
param **.servers[116].app.msg2msgGap 3000ns
param **.servers[116].app.msgNum 200
param **.servers[116]**.startTime 0.017000
param **.servers[116]**.endTime 0.018000
param **.servers[117]**.dstLid 118
param **.servers[117].app.msgLength 4096B
param **.servers[117].app.msg2msgGap 6000ns
param **.servers[117].app.msgNum 200
param **.servers[117]**.startTime 0.021000
param **.servers[117]**.endTime 0.022000
param **.servers[118]**.dstLid 9
param **.servers[118].app.msgLength 4096B
param **.servers[118].app.msg2msgGap 6000ns
param **.servers[118].app.msgNum 200
param **.servers[118]**.startTime 0.007000
param **.servers[118]**.endTime 0.008000
param **.servers[120]**.dstLid 56
param **.servers[120].app.msgLength 4096B
param **.servers[120].app.msg2msgGap 1000ns
param **.servers[120].app.msgNum 200
param **.servers[120]**.startTime 0.015000
param **.servers[120]**.endTime 0.016000
param **.servers[121]**.dstLid 25
param **.servers[121].app.msgLength 4096B
param **.servers[121].app.msg2msgGap 4000ns
param **.servers[121].app.msgNum 200
param **.servers[121]**.startTime 0.009000
param **.servers[121]**.endTime 0.010000
param **.servers[122]**.dstLid 8
param **.servers[122].app.msgLength 4096B
param **.servers[122].app.msg2msgGap 8000ns
param **.servers[122].app.msgNum 200
param **.servers[122]**.startTime 0.013000
param **.servers[122]**.endTime 0.014000
param **.servers[123]**.dstLid 117
param **.servers[123].app.msgLength 4096B
param **.servers[123].app.msg2msgGap 6000ns
param **.servers[123].app.msgNum 200
param **.servers[123]**.startTime 0.021000
param **.servers[123]**.endTime 0.022000
param **.**switches[*]**.fdbsVecFile "\"fat_tree_128.fdbs\""
param **.startStatCol 100us
param **.dstMode "\"param\""
param **.app.dstSeqVecFile "\"\""
param **.app.dstSeqVecIdx 0
param **.msgLenMode "\"param\""
param **.msgMtuLen 2048B
param **.msgLenSet "\"4096 4096 4096\""
param **.msgLenProb "\"1 1 1 1\""
param **.msgSQ 0
param **.maxContPkts 10
param **.popDlyPerByte 0.25ns
param **.genDlyPerByte 0.25ns
param **.maxQueuedPerVL 10
param **.flit2FlitGap 0.001ns
param **.pkt2PktGap 0.001ns
param **.timeStep_us 49us
param **.CCT_Timer 30us
param **.vlarb.markrate 1
param **ibuf.maxBeingSent 1
param **ibuf.totalBufferSize 1000
param **.servers[*]**.ibuf.maxStatic* 32
param **.**switches[*]**.subport[*].ibuf.maxStatic* 32
param **.**switches[*]**.obuf.size 5
param **.servers[*]**.obuf.size 5
param **.pktFwdType "\"Pktfwd\""
param **.servers[*]**.vlarb.busWidth 16B
param **.servers[*]**.vlarb.coreFreq 1000MHz
param **.**switches[*]**.vlarb.coreFreq 1200MHz
param **.**switches[*]**.vlarb.busWidth 24B

scalar fat_tree_128.servers[2].gen "average throughput" -0
scalar fat_tree_128.servers[4].gen "average throughput" -0
scalar fat_tree_128.servers[9].sink "link utilization" nan
scalar fat_tree_128.servers[16].sink "link utilization" nan
scalar fat_tree_128.servers[17].gen "average throughput" -0
scalar fat_tree_128.servers[19].gen "average throughput" -0
scalar fat_tree_128.servers[25].gen "average throughput" -0
scalar fat_tree_128.servers[34].sink "link utilization" nan
scalar fat_tree_128.servers[43].gen "average throughput" -0
scalar fat_tree_128.servers[48].gen "average throughput" -0
scalar fat_tree_128.servers[52].gen "average throughput" -0
scalar fat_tree_128.servers[59].gen "average throughput" -0
scalar fat_tree_128.servers[60].sink "link utilization" nan
scalar fat_tree_128.servers[62].gen "average throughput" -0
scalar fat_tree_128.servers[64].gen "average throughput" -0
scalar fat_tree_128.servers[69].sink "link utilization" nan
scalar fat_tree_128.servers[70].gen "average throughput" -0
scalar fat_tree_128.servers[71].gen "average throughput" -0
scalar fat_tree_128.servers[73].gen "average throughput" -0
scalar fat_tree_128.servers[83].gen "average throughput" -0
scalar fat_tree_128.servers[88].gen "average throughput" -0
scalar fat_tree_128.servers[91].sink "link utilization" nan
scalar fat_tree_128.servers[98].gen "average throughput" -0
scalar fat_tree_128.servers[99].gen "average throughput" -0
scalar fat_tree_128.servers[104].sink "link utilization" nan
scalar fat_tree_128.servers[109].gen "average throughput" -0
scalar fat_tree_128.servers[115].gen "average throughput" -0
scalar fat_tree_128.servers[119].gen "average throughput" -0
scalar fat_tree_128.servers[124].sink "link utilization" nan
scalar fat_tree_128.servers[125].gen "average throughput" -0
scalar fat_tree_128.servers[126].gen "average throughput" -0
scalar fat_tree_128.servers[127].gen "average throughput" -0

